# Generated by pormake.
# Topology pcu, (6)-cn, num edge types: 1
# Building blocks:
#     Node 0, Type 0, BuildingBlock: sbu, # of connection points: 6
#     Edge 1, Type (0, 0), BuildingBlock: linker, # of connection points: 2
#     Edge 2, Type (0, 0), BuildingBlock: linker, # of connection points: 2
#     Edge 3, Type (0, 0), BuildingBlock: linker, # of connection points: 2
# Relax obj value: 0.079
# Max RMSD: 0.198
# Mean RMSD: 0.198
data_5020_mbPXoIZAGm
_symmetry_space_group_name_H-M    P1
_symmetry_Int_Tables_number       1
_symmetry_cell_setting            triclinic
loop_
_symmetry_equiv_pos_as_xyz
'x, y, z'
_cell_length_a     13.171
_cell_length_b     13.584
_cell_length_c     12.752
_cell_angle_alpha  96.579
_cell_angle_beta   97.359
_cell_angle_gamma  115.391
loop_
_atom_site_label
_atom_site_type_symbol
_atom_site_fract_x
_atom_site_fract_y
_atom_site_fract_z
_atom_type_partial_charge
O0 O 0.10905 0.24198 0.09477 0.00000
Mn1 Mn 0.82572 0.81412 0.80058 0.00000
O2 O 0.97341 0.10274 0.96007 0.00000
Mn3 Mn 0.99385 0.97387 0.98644 0.00000
Mn4 Mn 0.23404 0.20379 0.09919 0.00000
C5 C 0.07778 0.07256 0.20218 0.00000
O6 O 0.82888 0.87329 0.94139 0.00000
O7 O 0.71108 0.86572 0.81516 0.00000
O8 O 0.86543 0.94486 0.73918 0.00000
O9 O 0.98000 0.91782 0.83754 0.00000
O10 O 0.17890 0.12651 0.21144 0.00000
O11 O 0.99243 0.01398 0.13639 0.00000
O12 O 0.15827 0.06982 0.00628 0.00000
O13 O 0.32672 0.13089 0.07366 0.00000
O14 O 0.01727 0.85253 0.02186 0.00000
O15 O 0.88659 0.73158 0.88193 0.00000
C16 C 0.02766 0.19145 0.02062 0.00000
C17 C 0.24854 0.04496 0.01432 0.00000
C18 C 0.74017 0.89889 0.91522 0.00000
C19 C 0.95806 0.76659 0.96255 0.00000
C20 C 0.97026 0.98705 0.77319 0.00000
O21 O 0.88582 0.75269 0.68912 0.00000
O22 O 0.68974 0.66820 0.80219 0.00000
O23 O 0.31874 0.34810 0.19800 0.00000
O24 O 0.29221 0.29455 0.98906 0.00000
C25 C 0.30828 0.27259 0.88436 0.00000
H26 H 0.23016 0.26104 0.82820 0.00000
H27 H 0.32832 0.20230 0.86896 0.00000
H28 H 0.37970 0.34830 0.86850 0.00000
C29 C 0.42893 0.43164 0.19372 0.00000
H30 H 0.41520 0.49548 0.15555 0.00000
H31 H 0.47965 0.40160 0.14772 0.00000
H32 H 0.48088 0.47502 0.27598 0.00000
C33 C 0.87133 0.64271 0.67310 0.00000
H34 H 0.94446 0.64132 0.63921 0.00000
H35 H 0.79042 0.58940 0.61420 0.00000
H36 H 0.87015 0.60525 0.74541 0.00000
C37 C 0.57911 0.57727 0.79509 0.00000
H38 H 0.50362 0.59616 0.77497 0.00000
H39 H 0.56966 0.55012 0.87347 0.00000
H40 H 0.56423 0.50628 0.73162 0.00000
H41 H 0.85682 0.76551 0.61968 0.00000
H42 H 0.65393 0.69824 0.75157 0.00000
H43 H 0.26992 0.37748 0.22677 0.00000
H44 H 0.30035 0.37097 0.00573 0.00000
C45 C 0.97133 0.68805 0.98391 0.00000
C46 C 0.94967 0.60507 0.88283 0.00000
C47 C 0.93109 0.53388 0.79613 0.00000
C48 C 0.90943 0.45090 0.69506 0.00000
F49 F 0.86317 0.47919 0.60830 0.00000
H50 H 0.89623 0.70290 0.98580 0.00000
H51 H 0.04570 0.76631 0.98376 0.00000
H52 H 0.99079 0.45278 0.68206 0.00000
C53 C 0.97690 0.24698 0.98331 0.00000
C54 C 0.92458 0.27788 0.88694 0.00000
C55 C 0.87970 0.30438 0.80427 0.00000
C56 C 0.82738 0.33527 0.70790 0.00000
F57 F 0.72537 0.33214 0.72292 0.00000
H58 H 0.92967 0.15775 0.98075 0.00000
H59 H 0.06661 0.26853 0.98103 0.00000
H60 H 0.81103 0.27530 0.63509 0.00000
C61 C 0.23834 0.93836 0.97302 0.00000
C62 C 0.25542 0.84788 0.90746 0.00000
C63 C 0.27008 0.77025 0.85122 0.00000
C64 C 0.28716 0.67976 0.78566 0.00000
F65 F 0.18362 0.58862 0.74874 0.00000
H66 H 0.18182 0.90283 0.02862 0.00000
H67 H 0.19942 0.97510 0.91878 0.00000
H68 H 0.32379 0.70967 0.71646 0.00000
C69 C 0.69603 0.93981 0.97116 0.00000
C70 C 0.58102 0.83811 0.93084 0.00000
C71 C 0.48237 0.75088 0.89624 0.00000
C72 C 0.36737 0.64918 0.85591 0.00000
F73 F 0.32153 0.61066 0.94163 0.00000
H74 H 0.76003 0.91432 0.00370 0.00000
H75 H 0.72303 0.98233 0.90450 0.00000
H76 H 0.37945 0.58362 0.80922 0.00000
C77 C 0.04331 0.08511 0.28827 0.00000
C78 C 0.94068 0.06879 0.33972 0.00000
C79 C 0.85264 0.05479 0.38386 0.00000
C80 C 0.75001 0.03848 0.43532 0.00000
F81 F 0.67093 0.05203 0.36589 0.00000
H82 H 0.06883 0.15927 0.25216 0.00000
H83 H 0.02027 0.01278 0.22564 0.00000
H84 H 0.71062 0.95420 0.45199 0.00000
C85 C 0.03920 0.07710 0.75899 0.00000
C86 C 0.95165 0.09308 0.68217 0.00000
C87 C 0.87655 0.10678 0.61627 0.00000
C88 C 0.78900 0.12276 0.53945 0.00000
F89 F 0.83699 0.22794 0.51898 0.00000
H90 H 0.05082 0.12186 0.84002 0.00000
H91 H 0.00887 0.98872 0.76032 0.00000
H92 H 0.71529 0.11173 0.57651 0.00000
loop_
_geom_bond_atom_site_label_1
_geom_bond_atom_site_label_2
_geom_bond_distance
_geom_bond_site_symmetry_2
_ccdc_geom_bond_type
O0 C16 1.214 . D
O0 Mn4 1.923 . S
Mn1 O6 1.869 . S
Mn1 O7 1.938 . S
Mn1 O8 1.915 . S
Mn1 O9 1.866 . S
Mn1 O15 1.949 . S
Mn1 O21 1.981 . S
Mn1 O22 2.028 . S
O2 Mn3 1.941 1_545 S
O2 C16 1.211 1_656 D
Mn3 O6 1.968 . S
Mn3 O9 1.918 . S
Mn3 O11 1.932 1_566 S
Mn3 O12 1.953 1_666 S
Mn3 O14 1.894 1_656 S
Mn4 O10 1.907 . S
Mn4 O12 1.832 . S
Mn4 O13 1.908 . S
Mn4 O23 1.968 . S
Mn4 O24 1.985 1_554 S
C5 O10 1.195 . D
C5 O11 1.200 1_455 D
O6 C18 1.368 . S
O7 C18 1.254 . D
O8 C20 1.239 . D
O9 C20 1.352 . S
O12 C17 1.363 . S
O13 C17 1.250 . D
O14 C19 1.187 1_454 D
O15 C19 1.194 . D
O21 H41 0.983 . S
O21 C33 1.409 . S
O22 H42 0.976 . S
O22 C37 1.433 . S
O23 H43 0.977 . S
O23 C29 1.421 . S
O24 H44 0.991 1_556 S
O24 C25 1.397 . S
C25 H26 1.115 . S
C25 H27 1.098 . S
C25 H28 1.118 . S
C29 H30 1.109 . S
C29 H31 1.112 . S
C29 H32 1.115 . S
C33 H34 1.111 . S
C33 H35 1.110 . S
C33 H36 1.102 . S
C37 H38 1.135 . S
C37 H39 1.108 . S
C37 H40 1.114 . S
C45 C46 1.520 . S
C45 H50 1.093 . S
C45 H51 1.094 1_655 S
C46 C47 1.304 . T
C47 C48 1.520 . S
C48 F49 1.367 . S
C48 H52 1.095 . S
C48 C56 1.520 . S
C53 C54 1.520 . S
C53 H58 1.094 . S
C53 H59 1.094 1_655 S
C54 C55 1.304 . T
C55 C56 1.520 . S
C56 F57 1.365 . S
C56 H60 1.094 . S
C61 C62 1.520 . S
C61 H66 1.093 1_556 S
C61 H67 1.094 . S
C62 C63 1.304 . T
C63 C64 1.520 . S
C64 F65 1.367 . S
C64 H68 1.095 . S
C64 C72 1.520 . S
C69 C70 1.520 . S
C69 H74 1.094 1_556 S
C69 H75 1.094 . S
C70 C71 1.304 . T
C71 C72 1.520 . S
C72 F73 1.365 . S
C72 H76 1.094 . S
C77 C78 1.520 1_455 S
C77 H82 1.093 . S
C77 H83 1.094 . S
C78 C79 1.304 . T
C79 C80 1.520 . S
C80 F81 1.367 . S
C80 H84 1.095 1_545 S
C80 C88 1.520 . S
C85 C86 1.520 1_455 S
C85 H90 1.094 . S
C85 H91 1.094 1_545 S
C86 C87 1.304 . T
C87 C88 1.520 . S
C88 F89 1.365 . S
C88 H92 1.094 . S
C45 C19 1.207 . S
C53 C16 1.294 1_656 S
C61 C17 1.426 1_566 S
C69 C18 1.204 . S
C77 C5 1.262 . S
C85 C20 1.222 1_445 S
